IEEE data/013_bus/ieee/013ieee.DAT
 00/00/01                      100.0  0    0 0                                                                                                                                                                                                                                                             
BUS DATA FOLLOWS                   13 ITEMS
   1 BUS-1   100   1  1    0.97  1.6991 0.       0.        0.      0.       100.    1.       0.     0.      0.      0.        0                                                                                                                                                                            
   2 BUS-2   100   1  1    0.983 2.7897 0.       0.        0.      0.       100.    1.       0.     0.      0.      0.        0                                                                                                                                                                            
   3 BUS-3   100   1  1    0.95  2.883  0.       0.        0.      0.       100.    1.       0.     0.      0.      0.        0                                                                                                                                                                            
   4 BUS-4   100   1  1  2 1.    2.9889 0.       0.        0.      -399.51  100.    1.     999900 -99990    0.      0.        0                                                                                                                                                                            
   5 BUS-5   100   1  1  2 1.037 10.174 50.      30.       500.    -232.962 100.    1.037  999900 -99990    0.      0.        0                                                                                                                                                                            
   6 BUS-6   100   1  1    1.063 9.4225 0.       0.        0.      0.       100.    1.       0.     0.      0.      0.        0                                                                                                                                                                            
   7 BUS-7   100   1  1  2 1.1   8.6023 0.       0.        0.      -33.2239 100.    1.1    999900 -99990    0.      0.        0                                                                                                                                                                            
   8 BUS-8   100   1  1  2 0.943 14.828 0.       0.        500.    -1006.32 100.    .94300 999900 -99990    0.      0.        0                                                                                                                                                                            
   9 BUS-9   100   1  1  2 1.1   8.8147 0.       0.        0.      -86.0196 100.    1.1    999900 -99990    0.      0.        0                                                                                                                                                                            
  10 BUS-10  100   1  1    1.017 12.584 50.      30.       0.      0.       100.    1.       0.     0.      0.      0.        0                                                                                                                                                                            
  11 BUS-11  100   1  1    1.067 8.57   50.      32.       0.      0.       100.    1.       0.     0.      0.      0.        0                                                                                                                                                                            
  12 BUS-12  100   1  1    1.044 5.7042 0.       0.        0.      0.       100.    1.       0.     0.      0.      0.        0                                                                                                                                                                            
  13 BUS-13  100   1  1  3 1.    0.     1650.    560.      830.1608-310.593 100.    1.     999900 -99990    0.      0.        0                                                                                                                                                                            
-999
BRANCH DATA FOLLOWS                   13 ITEMS
  13    1  1  1   2  0.0004    0.0085      0.     0    0     0      0    0  1.05   0      0      0       0      0      0                                                                                                                                                                                   
  13    2  1  1   2  0.0004    0.00947     0.     0    0     0      0    0  1.1    0      0      0       0      0      0                                                                                                                                                                                   
   4    3  1  1   2  0.0004    0.00947     0.     0    0     0      0    0  1.1    0      0      0       0      0      0                                                                                                                                                                                   
   3    2  1  1      0.00074   0.0143      4.36   0    0     0      0    0  0      0      0      0       0      0      0                                                                                                                                                                                   
   5    1  1  1      0.00481   0.0459      2.46   0    0     0      0    0  0      0      0      0       0      0      0                                                                                                                                                                                   
   5    6  1  1      0.0009    0.0108      0.16   0    0     0      0    0  0      0      0      0       0      0      0                                                                                                                                                                                   
   7    2  1  1      0.00121   0.0233      7.12   0    0     0      0    0  0      0      0      0       0      0      0                                                                                                                                                                                   
   6    7  1  1      0.        0.015       0.     0    0     0      0    0  0      0      0      0       0      0      0                                                                                                                                                                                   
   8    9  1  1      0.00105   0.0202      6.2    0    0     0      0    0  0      0      0      0       0      0      0                                                                                                                                                                                   
   9   10  1  1      0.       -0.015       0.     0    0     0      0    0  0      0      0      0       0      0      0                                                                                                                                                                                   
  10   11  1  1      0.00086   0.01665     5.08   0    0     0      0    0  0      0      0      0       0      0      0                                                                                                                                                                                   
  11   12  1  1      0.00075   0.01465     4.48   0    0     0      0    0  0      0      0      0       0      0      0                                                                                                                                                                                   
  12    7  1  1      0.       -0.015       0.     0    0     0      0    0  0      0      0      0       0      0      0                                                                                                                                                                                   
-999
LOSS ZONES FOLLOWS   0 ITEMS
-99
INTERCHANGE DATA FOLLOWS      0 ITEMS
-9
TIE LINES FOLLOWS             0 ITEMS
-999
END OF DATA
